Hello there ... trying commit
new line..
New line added from intelij
