Hello there ... trying commit
new line..
New line ad123ded from intelij
